data/ieee_13_clean/IEEE13Nodeckt_VLN_Node.Txt

LINE-GROUND and LINE-LINE VOLTAGES BY BUS & NODE

Bus       Node    VLN (kV)   Angle      pu     Base kV    Node-Node   VLL (kV)  Angle      pu

SOURCEBUS 1       66.394 /_   30.0   0.99997   115.000        1-2        115 /_   60.0         1
   -      2       66.395 /_  -90.0   0.99999   115.000        2-3        115 /_  -60.0   0.99997
   -      3       66.392 /_  150.0   0.99995   115.000        3-1     114.99 /_  180.0   0.99995
650 ..... 1       2.4016 /_    0.0   0.99991     4.160        1-2     4.1597 /_   30.0   0.99994
   -      2       2.4017 /_ -120.0   0.99997     4.160        2-3     4.1599 /_  -90.0   0.99997
   -      3       2.4016 /_  120.0   0.99993     4.160        3-1     4.1596 /_  150.0   0.99991
RG60 .... 1       2.5516 /_    0.0    1.0624     4.160        1-2     4.3936 /_   29.8    1.0562
   -      2       2.5217 /_ -120.0    1.0499     4.160        2-3     4.4068 /_  -89.7    1.0593
   -      3       2.5666 /_  120.0    1.0686     4.160        3-1     4.4324 /_  149.9    1.0655
633 ..... 1       2.4446 /_   -2.6    1.0178     4.160        1-2     4.2635 /_   28.2    1.0249
   -      2        2.498 /_ -121.8    1.0401     4.160        2-3     4.2833 /_  -92.4    1.0296
   -      3       2.4377 /_  117.8     1.015     4.160        3-1     4.2362 /_  147.7    1.0183
634 ..... 1      0.27543 /_   -3.2   0.99386     0.480        1-2    0.48128 /_   27.7    1.0027
   -      2      0.28314 /_ -122.2    1.0217     0.480        2-3    0.48534 /_  -92.9    1.0111
   -      3      0.27606 /_  117.3   0.99613     0.480        3-1    0.47897 /_  147.0   0.99785
671 ..... 1       2.3765 /_   -5.3   0.98946     4.160        1-2     4.1856 /_   27.3    1.0062
   -      2       2.5302 /_ -122.4    1.0535     4.160        2-3     4.2614 /_  -94.3    1.0244
   -      3       2.3514 /_  116.1   0.97903     4.160        3-1     4.1227 /_  145.6   0.99103
645 ..... 2       2.4805 /_ -121.9    1.0328     4.160        2-3     4.2659 /_  -92.3    1.0255
   -      3       2.4392 /_  117.8    1.0156     4.160
646 ..... 2       2.4763 /_ -122.0     1.031     4.160        2-3     4.2554 /_  -92.3    1.0229
   -      3       2.4343 /_  117.9    1.0135     4.160
692 ..... 1       2.3765 /_   -5.3   0.98946     4.160        1-2     4.1856 /_   27.3    1.0062
   -      2       2.5302 /_ -122.4    1.0535     4.160        2-3     4.2614 /_  -94.3    1.0244
   -      3       2.3514 /_  116.1   0.97903     4.160        3-1     4.1227 /_  145.6   0.99103
675 ..... 1       2.3609 /_   -5.6     0.983     4.160        1-2     4.1758 /_   27.2    1.0038
   -      2       2.5359 /_ -122.5    1.0558     4.160        2-3     4.2586 /_  -94.5    1.0237
   -      3        2.347 /_  116.1   0.97719     4.160        3-1     4.1105 /_  145.4    0.9881
611 ..... 3       2.3418 /_  115.8   0.97502     4.160
652 ..... 1       2.3584 /_   -5.3   0.98194     4.160
670 ..... 1       2.4272 /_   -3.4    1.0106     4.160        1-2     4.2438 /_   27.9    1.0201
   -      2       2.5097 /_ -121.9    1.0449     4.160        2-3     4.2798 /_  -93.1    1.0288
   -      3         2.41 /_  117.2    1.0034     4.160        3-1     4.2013 /_  147.0    1.0099
632 ..... 1       2.4519 /_   -2.5    1.0209     4.160        1-2     4.2741 /_   28.2    1.0274
   -      2       2.5025 /_ -121.7    1.0419     4.160        2-3     4.2936 /_  -92.4    1.0321
   -      3        2.444 /_  117.8    1.0176     4.160        3-1     4.2466 /_  147.7    1.0208
680 ..... 1       2.3765 /_   -5.3   0.98946     4.160        1-2     4.1856 /_   27.3    1.0062
   -      2       2.5302 /_ -122.4    1.0535     4.160        2-3     4.2614 /_  -94.3    1.0244
   -      3       2.3514 /_  116.1   0.97903     4.160        3-1     4.1227 /_  145.6   0.99103
684 ..... 1       2.3718 /_   -5.3   0.98751     4.160
   -      3       2.3466 /_  116.0   0.97702     4.160        3-1     4.1128 /_  145.5   0.98866
